/*--------------------------------*- C++ -*----------------------------------*\
| =========                 |                                                 |
| \\      /  F ield         | OpenFOAM: The Open Source CFD Toolbox           |
|  \\    /   O peration     | Version:  1.7.1                                 |
|   \\  /    A nd           | Web:      www.OpenFOAM.com                      |
|    \\/     M anipulation  |                                                 |
\*---------------------------------------------------------------------------*/
FoamFile
{
    version     2.0;
    format      ascii;
    class       dictionary;
    object      blockMeshDict;
}
// * * * * * * * * * * * * * * * * * * * * * * * * * * * * * * * * * * * * * //


//Naca 2412

scale 1;

vertices        
(
(	11	  -12.5     0) //0   
(	1	  -12.5	    0) //1      
(3.0100334e-01 -12.5 0)
(   -2 -12.5     0   ) //3
(	-13	   0         0) //4 
 
(   2.0066890e-02  -1.2793697e-02 0)
(   3.0100334e-01   2.7310380e-02 0)
(	1	   0         0) //7 
(	11	   0         0) //8   
(	11	   12.5	    0) //9  
(	1	   12.5	    0) //10  
(3.0100334e-01 12.5 0)
(   3.0100334e-01   1.3331846e-01 0)
(   2.0066890e-02   4.1698679e-02 0)
(   -2     12.5 0 ) //14


(	11	  -12.5     0.1) //15   
(	1	  -12.5	    0.1) //16    
(3.0100334e-01 -12.5 0.1)
(   -2    -12.5     0.1   ) //18
(	-13	   0         0.1) //19
 
(   2.0066890e-02  -1.2793697e-02 0.1)
(   3.0100334e-01   2.7310380e-02 0.1)
(	1	   0         0.1) //22 
(	11	   0         0.1) //23   
(	11	   12.5	    0.1) //24  
(	1	   12.5	    0.1) //25  
(3.0100334e-01 12.5 0.1)
(   3.0100334e-01   1.3331846e-01 0.1)
(   2.0066890e-02   4.1698679e-02 0.1)
(   -2     12.5    0.1 ) //29
);

blocks    
(
 hex (15 16 22 23 0 1 7 8)   (310 175 1)  simpleGrading 
    (
        (
            (0.8 190 1)
            (0.2 120 0.2)
        ) 
        (
            (0.95 75 0.4)
            (0.05 100 0.001)
        ) 
        1
    )           // 0

 hex (16 17 21 22 1 2 6 7)   (145  175 1)  simpleGrading
    (
        1 
        (
            (0.95 75 0.4)
            (0.05 100 0.001)
        ) 
        1
    )           // 1  


    hex (17 18 20 21 2 3 5 6)   (75  175 1)  simpleGrading
    (
        1 
        (
            (0.95 75 0.4)
            (0.05 100 0.001)
        ) 
        1
    )           //2


 hex (18 29 28 20 3 14 13 5)   (70  175 1)  simpleGrading 
    (
        1
        (
            (0.95 75 0.4)
            (0.05 100 0.001)
        ) 
        1
    )           // 3  


hex (27 28 29 26 12 13 14 11) (75  175 1)  simpleGrading 
    (
        1
        (
            (0.05 100 1000)
            (0.95 75 2.5)
        )
        1
    )           //4


 hex (22 27 26 25 7 12 11 10) (145  175 1)  simpleGrading 
    (
        1
        (
            (0.05 100 1000)
            (0.95 75 2.5)
        )
        1
    )           // 5

 hex (23 22 25 24 8 7 10 9)   (310 175 1)  simpleGrading 
    (
        (
            (0.8 190 1)
            (0.2 120 0.2)
        ) 
        (
            (0.05 100 1000)
            (0.95 75 2.5)
        ) 
        1
    )           // 6
);


edges           
(
    //inlet
        arc 3 14  (-13 0 0)
        arc 18 29 (-13 0 0.1)


spline 5 13 (
(   2.0066890e-02  -1.2793697e-02 0)
(   1.6722408e-02  -1.2066607e-02 0)
(   1.3377926e-02  -1.1144262e-02 0)
(   1.0033445e-02  -9.9599362e-03 0)
(   6.6889632e-03  -8.3878394e-03 0)
(   3.3444816e-03  -6.1143352e-03 0)
(   0.0000000e+00  -0.0000000e+00 0)
(   3.3444816e-03   1.6837749e-02 0)
(   6.6889632e-03   2.3871879e-02 0)
(   1.0033445e-02   2.9305619e-02 0)
(   1.3377926e-02   3.3913408e-02 0)
(   1.6722408e-02   3.7993690e-02 0)
(   2.0066890e-02   4.1698679e-02 0)

)

spline 20 28 (
(   2.0066890e-02  -1.2793697e-02 0.1)
(   1.6722408e-02  -1.2066607e-02 0.1)
(   1.3377926e-02  -1.1144262e-02 0.1)
(   1.0033445e-02  -9.9599362e-03 0.1)
(   6.6889632e-03  -8.3878394e-03 0.1)
(   3.3444816e-03  -6.1143352e-03 0.1)
(   0.0000000e+00  -0.0000000e+00 0.1)
(   3.3444816e-03   1.6837749e-02 0.1)
(   6.6889632e-03   2.3871879e-02 0.1)
(   1.0033445e-02   2.9305619e-02 0.1)
(   1.3377926e-02   3.3913408e-02 0.1)
(   1.6722408e-02   3.7993690e-02 0.1)
(   2.0066890e-02   4.1698679e-02 0.1)

)


polyLine 12 7 
 (
(   3.0100334e-01   1.3331846e-01 0)
(   3.0434783e-01   1.3337632e-01 0)
(   3.0769231e-01   1.3342030e-01 0)
(   3.1103679e-01   1.3345063e-01 0)
(   3.1438127e-01   1.3346754e-01 0)
(   3.1772575e-01   1.3347129e-01 0)
(   3.2107023e-01   1.3346210e-01 0)
(   3.2441472e-01   1.3344021e-01 0)
(   3.2775920e-01   1.3340585e-01 0)
(   3.3110368e-01   1.3335926e-01 0)
(   3.3444816e-01   1.3330066e-01 0)
(   3.3779264e-01   1.3323028e-01 0)
(   3.4113712e-01   1.3314836e-01 0)
(   3.4448161e-01   1.3305511e-01 0)
(   3.4782609e-01   1.3295076e-01 0)
(   3.5117057e-01   1.3283553e-01 0)
(   3.5451505e-01   1.3270964e-01 0)
(   3.5785953e-01   1.3257330e-01 0)
(   3.6120401e-01   1.3242675e-01 0)
(   3.6454849e-01   1.3227018e-01 0)
(   3.6789298e-01   1.3210381e-01 0)
(   3.7123746e-01   1.3192786e-01 0)
(   3.7458194e-01   1.3174253e-01 0)
(   3.7792642e-01   1.3154803e-01 0)
(   3.8127090e-01   1.3134456e-01 0)
(   3.8461538e-01   1.3113233e-01 0)
(   3.8795987e-01   1.3091154e-01 0)
(   3.9130435e-01   1.3068238e-01 0)
(   3.9464883e-01   1.3044506e-01 0)
(   3.9799331e-01   1.3019977e-01 0)
(   4.0133779e-01   1.2994670e-01 0)
(   4.0468227e-01   1.2968604e-01 0)
(   4.0802676e-01   1.2941799e-01 0)
(   4.1137124e-01   1.2914272e-01 0)
(   4.1471572e-01   1.2886042e-01 0)
(   4.1806020e-01   1.2857127e-01 0)
(   4.2140468e-01   1.2827546e-01 0)
(   4.2474916e-01   1.2797316e-01 0)
(   4.2809365e-01   1.2766454e-01 0)
(   4.3143813e-01   1.2734977e-01 0)
(   4.3478261e-01   1.2702903e-01 0)
(   4.3812709e-01   1.2670248e-01 0)
(   4.4147157e-01   1.2637029e-01 0)
(   4.4481605e-01   1.2603262e-01 0)
(   4.4816054e-01   1.2568963e-01 0)
(   4.5150502e-01   1.2534147e-01 0)
(   4.5484950e-01   1.2498830e-01 0)
(   4.5819398e-01   1.2463027e-01 0)
(   4.6153846e-01   1.2426753e-01 0)
(   4.6488294e-01   1.2390023e-01 0)
(   4.6822742e-01   1.2352851e-01 0)
(   4.7157191e-01   1.2315251e-01 0)
(   4.7491639e-01   1.2277236e-01 0)
(   4.7826087e-01   1.2238821e-01 0)
(   4.8160535e-01   1.2200017e-01 0)
(   4.8494983e-01   1.2160839e-01 0)
(   4.8829431e-01   1.2121299e-01 0)
(   4.9163880e-01   1.2081409e-01 0)
(   4.9498328e-01   1.2041181e-01 0)
(   4.9832776e-01   1.2000627e-01 0)
(   5.0167224e-01   1.1959757e-01 0)
(   5.0501672e-01   1.1918584e-01 0)
(   5.0836120e-01   1.1877117e-01 0)
(   5.1170569e-01   1.1835368e-01 0)
(   5.1505017e-01   1.1793346e-01 0)
(   5.1839465e-01   1.1751060e-01 0)
(   5.2173913e-01   1.1708521e-01 0)
(   5.2508361e-01   1.1665737e-01 0)
(   5.2842809e-01   1.1622718e-01 0)
(   5.3177258e-01   1.1579471e-01 0)
(   5.3511706e-01   1.1536004e-01 0)
(   5.3846154e-01   1.1492325e-01 0)
(   5.4180602e-01   1.1448442e-01 0)
(   5.4515050e-01   1.1404361e-01 0)
(   5.4849498e-01   1.1360090e-01 0)
(   5.5183946e-01   1.1315634e-01 0)
(   5.5518395e-01   1.1270998e-01 0)
(   5.5852843e-01   1.1226190e-01 0)
(   5.6187291e-01   1.1181213e-01 0)
(   5.6521739e-01   1.1136073e-01 0)
(   5.6856187e-01   1.1090774e-01 0)
(   5.7190635e-01   1.1045320e-01 0)
(   5.7525084e-01   1.0999715e-01 0)
(   5.7859532e-01   1.0953962e-01 0)
(   5.8193980e-01   1.0908063e-01 0)
(   5.8528428e-01   1.0862021e-01 0)
(   5.8862876e-01   1.0815839e-01 0)
(   5.9197324e-01   1.0769517e-01 0)
(   5.9531773e-01   1.0723057e-01 0)
(   5.9866221e-01   1.0676461e-01 0)
(   6.0200669e-01   1.0629727e-01 0)
(   6.0535117e-01   1.0582858e-01 0)
(   6.0869565e-01   1.0535851e-01 0)
(   6.1204013e-01   1.0488706e-01 0)
(   6.1538462e-01   1.0441422e-01 0)
(   6.1872910e-01   1.0393997e-01 0)
(   6.2207358e-01   1.0346430e-01 0)
(   6.2541806e-01   1.0298717e-01 0)
(   6.2876254e-01   1.0250856e-01 0)
(   6.3210702e-01   1.0202843e-01 0)
(   6.3545151e-01   1.0154675e-01 0)
(   6.3879599e-01   1.0106347e-01 0)
(   6.4214047e-01   1.0057854e-01 0)
(   6.4548495e-01   1.0009192e-01 0)
(   6.4882943e-01   9.9603540e-02 0)
(   6.5217391e-01   9.9113349e-02 0)
(   6.5551839e-01   9.8621279e-02 0)
(   6.5886288e-01   9.8127260e-02 0)
(   6.6220736e-01   9.7631216e-02 0)
(   6.6555184e-01   9.7133070e-02 0)
(   6.6889632e-01   9.6632736e-02 0)
(   6.7224080e-01   9.6130127e-02 0)
(   6.7558528e-01   9.5625150e-02 0)
(   6.7892977e-01   9.5117705e-02 0)
(   6.8227425e-01   9.4607690e-02 0)
(   6.8561873e-01   9.4094997e-02 0)
(   6.8896321e-01   9.3579514e-02 0)
(   6.9230769e-01   9.3061122e-02 0)
(   6.9565217e-01   9.2539701e-02 0)
(   6.9899666e-01   9.2015121e-02 0)
(   7.0234114e-01   9.1487252e-02 0)
(   7.0568562e-01   9.0955954e-02 0)
(   7.0903010e-01   9.0421087e-02 0)
(   7.1237458e-01   8.9882503e-02 0)
(   7.1571906e-01   8.9340049e-02 0)
(   7.1906355e-01   8.8793568e-02 0)
(   7.2240803e-01   8.8242896e-02 0)
(   7.2575251e-01   8.7687866e-02 0)
(   7.2909699e-01   8.7128305e-02 0)
(   7.3244147e-01   8.6564035e-02 0)
(   7.3578595e-01   8.5994872e-02 0)
(   7.3913043e-01   8.5420627e-02 0)
(   7.4247492e-01   8.4841106e-02 0)
(   7.4581940e-01   8.4256109e-02 0)
(   7.4916388e-01   8.3665433e-02 0)
(   7.5250836e-01   8.3068866e-02 0)
(   7.5585284e-01   8.2466194e-02 0)
(   7.5919732e-01   8.1857194e-02 0)
(   7.6254181e-01   8.1241642e-02 0)
(   7.6588629e-01   8.0619304e-02 0)
(   7.6923077e-01   7.9989944e-02 0)
(   7.7257525e-01   7.9353318e-02 0)
(   7.7591973e-01   7.8709179e-02 0)
(   7.7926421e-01   7.8057271e-02 0)
(   7.8260870e-01   7.7397335e-02 0)
(   7.8595318e-01   7.6729107e-02 0)
(   7.8929766e-01   7.6052315e-02 0)
(   7.9264214e-01   7.5366682e-02 0)
(   7.9598662e-01   7.4671926e-02 0)
(   7.9933110e-01   7.3967759e-02 0)
(   8.0267559e-01   7.3253887e-02 0)
(   8.0602007e-01   7.2530010e-02 0)
(   8.0936455e-01   7.1795823e-02 0)
(   8.1270903e-01   7.1051016e-02 0)
(   8.1605351e-01   7.0295270e-02 0)
(   8.1939799e-01   6.9528262e-02 0)
(   8.2274247e-01   6.8749664e-02 0)
(   8.2608696e-01   6.7959141e-02 0)
(   8.2943144e-01   6.7156352e-02 0)
(   8.3277592e-01   6.6340951e-02 0)
(   8.3612040e-01   6.5512583e-02 0)
(   8.3946488e-01   6.4670892e-02 0)
(   8.4280936e-01   6.3815511e-02 0)
(   8.4615385e-01   6.2946071e-02 0)
(   8.4949833e-01   6.2062193e-02 0)
(   8.5284281e-01   6.1163495e-02 0)
(   8.5618729e-01   6.0249587e-02 0)
(   8.5953177e-01   5.9320074e-02 0)
(   8.6287625e-01   5.8374555e-02 0)
(   8.6622074e-01   5.7412620e-02 0)
(   8.6956522e-01   5.6433857e-02 0)
(   8.7290970e-01   5.5437845e-02 0)
(   8.7625418e-01   5.4424157e-02 0)
(   8.7959866e-01   5.3392360e-02 0)
(   8.8294314e-01   5.2342014e-02 0)
(   8.8628763e-01   5.1272675e-02 0)
(   8.8963211e-01   5.0183890e-02 0)
(   8.9297659e-01   4.9075200e-02 0)
(   8.9632107e-01   4.7946141e-02 0)
(   8.9966555e-01   4.6796241e-02 0)
(   9.0301003e-01   4.5625022e-02 0)
(   9.0635452e-01   4.4432001e-02 0)
(   9.0969900e-01   4.3216685e-02 0)
(   9.1304348e-01   4.1978579e-02 0)
(   9.1638796e-01   4.0717177e-02 0)
(   9.1973244e-01   3.9431969e-02 0)
(   9.2307692e-01   3.8122439e-02 0)
(   9.2642140e-01   3.6788061e-02 0)
(   9.2976589e-01   3.5428307e-02 0)
(   9.3311037e-01   3.4042638e-02 0)
(   9.3645485e-01   3.2630511e-02 0)
(   9.3979933e-01   3.1191375e-02 0)
(   9.4314381e-01   2.9724674e-02 0)
(   9.4648829e-01   2.8229842e-02 0)
(   9.4983278e-01   2.6706309e-02 0)
(   9.5317726e-01   2.5153498e-02 0)
(   9.5652174e-01   2.3570824e-02 0)
(   9.5986622e-01   2.1957695e-02 0)
(   9.6321070e-01   2.0313513e-02 0)
(   9.6655518e-01   1.8637674e-02 0)
(   9.6989967e-01   1.6929565e-02 0)
(   9.7324415e-01   1.5188567e-02 0)
(   9.7658863e-01   1.3414054e-02 0)
(   9.7993311e-01   1.1605394e-02 0)
(   9.8327759e-01   9.7619458e-03 0)
(   9.8662207e-01   7.8830631e-03 0)
(   9.8996656e-01   5.9680919e-03 0)
(   9.9331104e-01   4.0163709e-03 0)
(   9.9665552e-01   2.0272320e-03 0)
(   1.0000000e+00   0.0000000e+00 0)

)

 polyLine 13 12
 (
(   2.0066890e-02   4.1698679e-02 0)
(   2.3411371e-02   4.5118259e-02 0)
(   2.6755853e-02   4.8310621e-02 0)
(   3.0100334e-02   5.1315911e-02 0)
(   3.3444816e-02   5.4163155e-02 0)
(   3.6789298e-02   5.6874105e-02 0)
(   4.0133779e-02   5.9465535e-02 0)
(   4.3478261e-02   6.1950683e-02 0)
(   4.6822742e-02   6.4340200e-02 0)
(   5.0167224e-02   6.6642797e-02 0)
(   5.3511706e-02   6.8865700e-02 0)
(   5.6856187e-02   7.1014975e-02 0)
(   6.0200669e-02   7.3095771e-02 0)
(   6.3545151e-02   7.5112498e-02 0)
(   6.6889632e-02   7.7068968e-02 0)
(   7.0234114e-02   7.8968501e-02 0)
(   7.3578595e-02   8.0814009e-02 0)
(   7.6923077e-02   8.2608063e-02 0)
(   8.0267559e-02   8.4352946e-02 0)
(   8.3612040e-02   8.6050698e-02 0)
(   8.6956522e-02   8.7703149e-02 0)
(   9.0301003e-02   8.9311952e-02 0)
(   9.3645485e-02   9.0878606e-02 0)
(   9.6989967e-02   9.2404473e-02 0)
(   1.0033445e-01   9.3890802e-02 0)
(   1.0367893e-01   9.5338737e-02 0)
(   1.0702341e-01   9.6749334e-02 0)
(   1.1036789e-01   9.8123569e-02 0)
(   1.1371237e-01   9.9462351e-02 0)
(   1.1705686e-01   1.0076652e-01 0)
(   1.2040134e-01   1.0203687e-01 0)
(   1.2374582e-01   1.0327414e-01 0)
(   1.2709030e-01   1.0447903e-01 0)
(   1.3043478e-01   1.0565220e-01 0)
(   1.3377926e-01   1.0679425e-01 0)
(   1.3712375e-01   1.0790580e-01 0)
(   1.4046823e-01   1.0898739e-01 0)
(   1.4381271e-01   1.1003957e-01 0)
(   1.4715719e-01   1.1106284e-01 0)
(   1.5050167e-01   1.1205770e-01 0)
(   1.5384615e-01   1.1302462e-01 0)
(   1.5719064e-01   1.1396405e-01 0)
(   1.6053512e-01   1.1487643e-01 0)
(   1.6387960e-01   1.1576219e-01 0)
(   1.6722408e-01   1.1662173e-01 0)
(   1.7056856e-01   1.1745545e-01 0)
(   1.7391304e-01   1.1826375e-01 0)
(   1.7725753e-01   1.1904699e-01 0)
(   1.8060201e-01   1.1980554e-01 0)
(   1.8394649e-01   1.2053977e-01 0)
(   1.8729097e-01   1.2125003e-01 0)
(   1.9063545e-01   1.2193665e-01 0)
(   1.9397993e-01   1.2259998e-01 0)
(   1.9732441e-01   1.2324034e-01 0)
(   2.0066890e-01   1.2385807e-01 0)
(   2.0401338e-01   1.2445348e-01 0)
(   2.0735786e-01   1.2502688e-01 0)
(   2.1070234e-01   1.2557859e-01 0)
(   2.1404682e-01   1.2610890e-01 0)
(   2.1739130e-01   1.2661814e-01 0)
(   2.2073579e-01   1.2710658e-01 0)
(   2.2408027e-01   1.2757453e-01 0)
(   2.2742475e-01   1.2802227e-01 0)
(   2.3076923e-01   1.2845010e-01 0)
(   2.3411371e-01   1.2885831e-01 0)
(   2.3745819e-01   1.2924716e-01 0)
(   2.4080268e-01   1.2961694e-01 0)
(   2.4414716e-01   1.2996794e-01 0)
(   2.4749164e-01   1.3030042e-01 0)
(   2.5083612e-01   1.3061466e-01 0)
(   2.5418060e-01   1.3091092e-01 0)
(   2.5752508e-01   1.3118948e-01 0)
(   2.6086957e-01   1.3145060e-01 0)
(   2.6421405e-01   1.3169455e-01 0)
(   2.6755853e-01   1.3192159e-01 0)
(   2.7090301e-01   1.3213199e-01 0)
(   2.7424749e-01   1.3232599e-01 0)
(   2.7759197e-01   1.3250385e-01 0)
(   2.8093645e-01   1.3266584e-01 0)
(   2.8428094e-01   1.3281221e-01 0)
(   2.8762542e-01   1.3294320e-01 0)
(   2.9096990e-01   1.3305908e-01 0)
(   2.9431438e-01   1.3316008e-01 0)
(   2.9765886e-01   1.3324646e-01 0)
(   3.0100334e-01   1.3331846e-01 0)
 )

 polyLine 27 22
 (
(   3.0100334e-01   1.3331846e-01 0.1)
(   3.0434783e-01   1.3337632e-01 0.1)
(   3.0769231e-01   1.3342030e-01 0.1)
(   3.1103679e-01   1.3345063e-01 0.1)
(   3.1438127e-01   1.3346754e-01 0.1)
(   3.1772575e-01   1.3347129e-01 0.1)
(   3.2107023e-01   1.3346210e-01 0.1)
(   3.2441472e-01   1.3344021e-01 0.1)
(   3.2775920e-01   1.3340585e-01 0.1)
(   3.3110368e-01   1.3335926e-01 0.1)
(   3.3444816e-01   1.3330066e-01 0.1)
(   3.3779264e-01   1.3323028e-01 0.1)
(   3.4113712e-01   1.3314836e-01 0.1)
(   3.4448161e-01   1.3305511e-01 0.1)
(   3.4782609e-01   1.3295076e-01 0.1)
(   3.5117057e-01   1.3283553e-01 0.1)
(   3.5451505e-01   1.3270964e-01 0.1)
(   3.5785953e-01   1.3257330e-01 0.1)
(   3.6120401e-01   1.3242675e-01 0.1)
(   3.6454849e-01   1.3227018e-01 0.1)
(   3.6789298e-01   1.3210381e-01 0.1)
(   3.7123746e-01   1.3192786e-01 0.1)
(   3.7458194e-01   1.3174253e-01 0.1)
(   3.7792642e-01   1.3154803e-01 0.1)
(   3.8127090e-01   1.3134456e-01 0.1)
(   3.8461538e-01   1.3113233e-01 0.1)
(   3.8795987e-01   1.3091154e-01 0.1)
(   3.9130435e-01   1.3068238e-01 0.1)
(   3.9464883e-01   1.3044506e-01 0.1)
(   3.9799331e-01   1.3019977e-01 0.1)
(   4.0133779e-01   1.2994670e-01 0.1)
(   4.0468227e-01   1.2968604e-01 0.1)
(   4.0802676e-01   1.2941799e-01 0.1)
(   4.1137124e-01   1.2914272e-01 0.1)
(   4.1471572e-01   1.2886042e-01 0.1)
(   4.1806020e-01   1.2857127e-01 0.1)
(   4.2140468e-01   1.2827546e-01 0.1)
(   4.2474916e-01   1.2797316e-01 0.1)
(   4.2809365e-01   1.2766454e-01 0.1)
(   4.3143813e-01   1.2734977e-01 0.1)
(   4.3478261e-01   1.2702903e-01 0.1)
(   4.3812709e-01   1.2670248e-01 0.1)
(   4.4147157e-01   1.2637029e-01 0.1)
(   4.4481605e-01   1.2603262e-01 0.1)
(   4.4816054e-01   1.2568963e-01 0.1)
(   4.5150502e-01   1.2534147e-01 0.1)
(   4.5484950e-01   1.2498830e-01 0.1)
(   4.5819398e-01   1.2463027e-01 0.1)
(   4.6153846e-01   1.2426753e-01 0.1)
(   4.6488294e-01   1.2390023e-01 0.1)
(   4.6822742e-01   1.2352851e-01 0.1)
(   4.7157191e-01   1.2315251e-01 0.1)
(   4.7491639e-01   1.2277236e-01 0.1)
(   4.7826087e-01   1.2238821e-01 0.1)
(   4.8160535e-01   1.2200017e-01 0.1)
(   4.8494983e-01   1.2160839e-01 0.1)
(   4.8829431e-01   1.2121299e-01 0.1)
(   4.9163880e-01   1.2081409e-01 0.1)
(   4.9498328e-01   1.2041181e-01 0.1)
(   4.9832776e-01   1.2000627e-01 0.1)
(   5.0167224e-01   1.1959757e-01 0.1)
(   5.0501672e-01   1.1918584e-01 0.1)
(   5.0836120e-01   1.1877117e-01 0.1)
(   5.1170569e-01   1.1835368e-01 0.1)
(   5.1505017e-01   1.1793346e-01 0.1)
(   5.1839465e-01   1.1751060e-01 0.1)
(   5.2173913e-01   1.1708521e-01 0.1)
(   5.2508361e-01   1.1665737e-01 0.1)
(   5.2842809e-01   1.1622718e-01 0.1)
(   5.3177258e-01   1.1579471e-01 0.1)
(   5.3511706e-01   1.1536004e-01 0.1)
(   5.3846154e-01   1.1492325e-01 0.1)
(   5.4180602e-01   1.1448442e-01 0.1)
(   5.4515050e-01   1.1404361e-01 0.1)
(   5.4849498e-01   1.1360090e-01 0.1)
(   5.5183946e-01   1.1315634e-01 0.1)
(   5.5518395e-01   1.1270998e-01 0.1)
(   5.5852843e-01   1.1226190e-01 0.1)
(   5.6187291e-01   1.1181213e-01 0.1)
(   5.6521739e-01   1.1136073e-01 0.1)
(   5.6856187e-01   1.1090774e-01 0.1)
(   5.7190635e-01   1.1045320e-01 0.1)
(   5.7525084e-01   1.0999715e-01 0.1)
(   5.7859532e-01   1.0953962e-01 0.1)
(   5.8193980e-01   1.0908063e-01 0.1)
(   5.8528428e-01   1.0862021e-01 0.1)
(   5.8862876e-01   1.0815839e-01 0.1)
(   5.9197324e-01   1.0769517e-01 0.1)
(   5.9531773e-01   1.0723057e-01 0.1)
(   5.9866221e-01   1.0676461e-01 0.1)
(   6.0200669e-01   1.0629727e-01 0.1)
(   6.0535117e-01   1.0582858e-01 0.1)
(   6.0869565e-01   1.0535851e-01 0.1)
(   6.1204013e-01   1.0488706e-01 0.1)
(   6.1538462e-01   1.0441422e-01 0.1)
(   6.1872910e-01   1.0393997e-01 0.1)
(   6.2207358e-01   1.0346430e-01 0.1)
(   6.2541806e-01   1.0298717e-01 0.1)
(   6.2876254e-01   1.0250856e-01 0.1)
(   6.3210702e-01   1.0202843e-01 0.1)
(   6.3545151e-01   1.0154675e-01 0.1)
(   6.3879599e-01   1.0106347e-01 0.1)
(   6.4214047e-01   1.0057854e-01 0.1)
(   6.4548495e-01   1.0009192e-01 0.1)
(   6.4882943e-01   9.9603540e-02 0.1)
(   6.5217391e-01   9.9113349e-02 0.1)
(   6.5551839e-01   9.8621279e-02 0.1)
(   6.5886288e-01   9.8127260e-02 0.1)
(   6.6220736e-01   9.7631216e-02 0.1)
(   6.6555184e-01   9.7133070e-02 0.1)
(   6.6889632e-01   9.6632736e-02 0.1)
(   6.7224080e-01   9.6130127e-02 0.1)
(   6.7558528e-01   9.5625150e-02 0.1)
(   6.7892977e-01   9.5117705e-02 0.1)
(   6.8227425e-01   9.4607690e-02 0.1)
(   6.8561873e-01   9.4094997e-02 0.1)
(   6.8896321e-01   9.3579514e-02 0.1)
(   6.9230769e-01   9.3061122e-02 0.1)
(   6.9565217e-01   9.2539701e-02 0.1)
(   6.9899666e-01   9.2015121e-02 0.1)
(   7.0234114e-01   9.1487252e-02 0.1)
(   7.0568562e-01   9.0955954e-02 0.1)
(   7.0903010e-01   9.0421087e-02 0.1)
(   7.1237458e-01   8.9882503e-02 0.1)
(   7.1571906e-01   8.9340049e-02 0.1)
(   7.1906355e-01   8.8793568e-02 0.1)
(   7.2240803e-01   8.8242896e-02 0.1)
(   7.2575251e-01   8.7687866e-02 0.1)
(   7.2909699e-01   8.7128305e-02 0.1)
(   7.3244147e-01   8.6564035e-02 0.1)
(   7.3578595e-01   8.5994872e-02 0.1)
(   7.3913043e-01   8.5420627e-02 0.1)
(   7.4247492e-01   8.4841106e-02 0.1)
(   7.4581940e-01   8.4256109e-02 0.1)
(   7.4916388e-01   8.3665433e-02 0.1)
(   7.5250836e-01   8.3068866e-02 0.1)
(   7.5585284e-01   8.2466194e-02 0.1)
(   7.5919732e-01   8.1857194e-02 0.1)
(   7.6254181e-01   8.1241642e-02 0.1)
(   7.6588629e-01   8.0619304e-02 0.1)
(   7.6923077e-01   7.9989944e-02 0.1)
(   7.7257525e-01   7.9353318e-02 0.1)
(   7.7591973e-01   7.8709179e-02 0.1)
(   7.7926421e-01   7.8057271e-02 0.1)
(   7.8260870e-01   7.7397335e-02 0.1)
(   7.8595318e-01   7.6729107e-02 0.1)
(   7.8929766e-01   7.6052315e-02 0.1)
(   7.9264214e-01   7.5366682e-02 0.1)
(   7.9598662e-01   7.4671926e-02 0.1)
(   7.9933110e-01   7.3967759e-02 0.1)
(   8.0267559e-01   7.3253887e-02 0.1)
(   8.0602007e-01   7.2530010e-02 0.1)
(   8.0936455e-01   7.1795823e-02 0.1)
(   8.1270903e-01   7.1051016e-02 0.1)
(   8.1605351e-01   7.0295270e-02 0.1)
(   8.1939799e-01   6.9528262e-02 0.1)
(   8.2274247e-01   6.8749664e-02 0.1)
(   8.2608696e-01   6.7959141e-02 0.1)
(   8.2943144e-01   6.7156352e-02 0.1)
(   8.3277592e-01   6.6340951e-02 0.1)
(   8.3612040e-01   6.5512583e-02 0.1)
(   8.3946488e-01   6.4670892e-02 0.1)
(   8.4280936e-01   6.3815511e-02 0.1)
(   8.4615385e-01   6.2946071e-02 0.1)
(   8.4949833e-01   6.2062193e-02 0.1)
(   8.5284281e-01   6.1163495e-02 0.1)
(   8.5618729e-01   6.0249587e-02 0.1)
(   8.5953177e-01   5.9320074e-02 0.1)
(   8.6287625e-01   5.8374555e-02 0.1)
(   8.6622074e-01   5.7412620e-02 0.1)
(   8.6956522e-01   5.6433857e-02 0.1)
(   8.7290970e-01   5.5437845e-02 0.1)
(   8.7625418e-01   5.4424157e-02 0.1)
(   8.7959866e-01   5.3392360e-02 0.1)
(   8.8294314e-01   5.2342014e-02 0.1)
(   8.8628763e-01   5.1272675e-02 0.1)
(   8.8963211e-01   5.0183890e-02 0.1)
(   8.9297659e-01   4.9075200e-02 0.1)
(   8.9632107e-01   4.7946141e-02 0.1)
(   8.9966555e-01   4.6796241e-02 0.1)
(   9.0301003e-01   4.5625022e-02 0.1)
(   9.0635452e-01   4.4432001e-02 0.1)
(   9.0969900e-01   4.3216685e-02 0.1)
(   9.1304348e-01   4.1978579e-02 0.1)
(   9.1638796e-01   4.0717177e-02 0.1)
(   9.1973244e-01   3.9431969e-02 0.1)
(   9.2307692e-01   3.8122439e-02 0.1)
(   9.2642140e-01   3.6788061e-02 0.1)
(   9.2976589e-01   3.5428307e-02 0.1)
(   9.3311037e-01   3.4042638e-02 0.1)
(   9.3645485e-01   3.2630511e-02 0.1)
(   9.3979933e-01   3.1191375e-02 0.1)
(   9.4314381e-01   2.9724674e-02 0.1)
(   9.4648829e-01   2.8229842e-02 0.1)
(   9.4983278e-01   2.6706309e-02 0.1)
(   9.5317726e-01   2.5153498e-02 0.1)
(   9.5652174e-01   2.3570824e-02 0.1)
(   9.5986622e-01   2.1957695e-02 0.1)
(   9.6321070e-01   2.0313513e-02 0.1)
(   9.6655518e-01   1.8637674e-02 0.1)
(   9.6989967e-01   1.6929565e-02 0.1)
(   9.7324415e-01   1.5188567e-02 0.1)
(   9.7658863e-01   1.3414054e-02 0.1)
(   9.7993311e-01   1.1605394e-02 0.1)
(   9.8327759e-01   9.7619458e-03 0.1)
(   9.8662207e-01   7.8830631e-03 0.1)
(   9.8996656e-01   5.9680919e-03 0.1)
(   9.9331104e-01   4.0163709e-03 0.1)
(   9.9665552e-01   2.0272320e-03 0.1)
(   1.0000000e+00   0.0000000e+00 0.1)

 )

 polyLine 28 27
 ( 
(   2.0066890e-02   4.1698679e-02 0.1)
(   2.3411371e-02   4.5118259e-02 0.1)
(   2.6755853e-02   4.8310621e-02 0.1)
(   3.0100334e-02   5.1315911e-02 0.1)
(   3.3444816e-02   5.4163155e-02 0.1)
(   3.6789298e-02   5.6874105e-02 0.1)
(   4.0133779e-02   5.9465535e-02 0.1)
(   4.3478261e-02   6.1950683e-02 0.1)
(   4.6822742e-02   6.4340200e-02 0.1)
(   5.0167224e-02   6.6642797e-02 0.1)
(   5.3511706e-02   6.8865700e-02 0.1)
(   5.6856187e-02   7.1014975e-02 0.1)
(   6.0200669e-02   7.3095771e-02 0.1)
(   6.3545151e-02   7.5112498e-02 0.1)
(   6.6889632e-02   7.7068968e-02 0.1)
(   7.0234114e-02   7.8968501e-02 0.1)
(   7.3578595e-02   8.0814009e-02 0.1)
(   7.6923077e-02   8.2608063e-02 0.1)
(   8.0267559e-02   8.4352946e-02 0.1)
(   8.3612040e-02   8.6050698e-02 0.1)
(   8.6956522e-02   8.7703149e-02 0.1)
(   9.0301003e-02   8.9311952e-02 0.1)
(   9.3645485e-02   9.0878606e-02 0.1)
(   9.6989967e-02   9.2404473e-02 0.1)
(   1.0033445e-01   9.3890802e-02 0.1)
(   1.0367893e-01   9.5338737e-02 0.1)
(   1.0702341e-01   9.6749334e-02 0.1)
(   1.1036789e-01   9.8123569e-02 0.1)
(   1.1371237e-01   9.9462351e-02 0.1)
(   1.1705686e-01   1.0076652e-01 0.1)
(   1.2040134e-01   1.0203687e-01 0.1)
(   1.2374582e-01   1.0327414e-01 0.1)
(   1.2709030e-01   1.0447903e-01 0.1)
(   1.3043478e-01   1.0565220e-01 0.1)
(   1.3377926e-01   1.0679425e-01 0.1)
(   1.3712375e-01   1.0790580e-01 0.1)
(   1.4046823e-01   1.0898739e-01 0.1)
(   1.4381271e-01   1.1003957e-01 0.1)
(   1.4715719e-01   1.1106284e-01 0.1)
(   1.5050167e-01   1.1205770e-01 0.1)
(   1.5384615e-01   1.1302462e-01 0.1)
(   1.5719064e-01   1.1396405e-01 0.1)
(   1.6053512e-01   1.1487643e-01 0.1)
(   1.6387960e-01   1.1576219e-01 0.1)
(   1.6722408e-01   1.1662173e-01 0.1)
(   1.7056856e-01   1.1745545e-01 0.1)
(   1.7391304e-01   1.1826375e-01 0.1)
(   1.7725753e-01   1.1904699e-01 0.1)
(   1.8060201e-01   1.1980554e-01 0.1)
(   1.8394649e-01   1.2053977e-01 0.1)
(   1.8729097e-01   1.2125003e-01 0.1)
(   1.9063545e-01   1.2193665e-01 0.1)
(   1.9397993e-01   1.2259998e-01 0.1)
(   1.9732441e-01   1.2324034e-01 0.1)
(   2.0066890e-01   1.2385807e-01 0.1)
(   2.0401338e-01   1.2445348e-01 0.1)
(   2.0735786e-01   1.2502688e-01 0.1)
(   2.1070234e-01   1.2557859e-01 0.1)
(   2.1404682e-01   1.2610890e-01 0.1)
(   2.1739130e-01   1.2661814e-01 0.1)
(   2.2073579e-01   1.2710658e-01 0.1)
(   2.2408027e-01   1.2757453e-01 0.1)
(   2.2742475e-01   1.2802227e-01 0.1)
(   2.3076923e-01   1.2845010e-01 0.1)
(   2.3411371e-01   1.2885831e-01 0.1)
(   2.3745819e-01   1.2924716e-01 0.1)
(   2.4080268e-01   1.2961694e-01 0.1)
(   2.4414716e-01   1.2996794e-01 0.1)
(   2.4749164e-01   1.3030042e-01 0.1)
(   2.5083612e-01   1.3061466e-01 0.1)
(   2.5418060e-01   1.3091092e-01 0.1)
(   2.5752508e-01   1.3118948e-01 0.1)
(   2.6086957e-01   1.3145060e-01 0.1)
(   2.6421405e-01   1.3169455e-01 0.1)
(   2.6755853e-01   1.3192159e-01 0.1)
(   2.7090301e-01   1.3213199e-01 0.1)
(   2.7424749e-01   1.3232599e-01 0.1)
(   2.7759197e-01   1.3250385e-01 0.1)
(   2.8093645e-01   1.3266584e-01 0.1)
(   2.8428094e-01   1.3281221e-01 0.1)
(   2.8762542e-01   1.3294320e-01 0.1)
(   2.9096990e-01   1.3305908e-01 0.1)
(   2.9431438e-01   1.3316008e-01 0.1)
(   2.9765886e-01   1.3324646e-01 0.1)
(   3.0100334e-01   1.3331846e-01 0.1)
 )

polyLine 22 21 
 (
(   1.0000000e+00   0.0000000e+00 0.1)
(   9.9665552e-01   1.6210211e-03 0.1)
(   9.9331104e-01   3.2101421e-03 0.1)
(   9.8996656e-01   4.7678063e-03 0.1)
(   9.8662207e-01   6.2944527e-03 0.1)
(   9.8327759e-01   7.7905157e-03 0.1)
(   9.7993311e-01   9.2564256e-03 0.1)
(   9.7658863e-01   1.0692608e-02 0.1)
(   9.7324415e-01   1.2099485e-02 0.1)
(   9.6989967e-01   1.3477473e-02 0.1)
(   9.6655518e-01   1.4826986e-02 0.1)
(   9.6321070e-01   1.6148431e-02 0.1)
(   9.5986622e-01   1.7442213e-02 0.1)
(   9.5652174e-01   1.8708733e-02 0.1)
(   9.5317726e-01   1.9948385e-02 0.1)
(   9.4983278e-01   2.1161562e-02 0.1)
(   9.4648829e-01   2.2348650e-02 0.1)
(   9.4314381e-01   2.3510034e-02 0.1)
(   9.3979933e-01   2.4646091e-02 0.1)
(   9.3645485e-01   2.5757198e-02 0.1)
(   9.3311037e-01   2.6843723e-02 0.1)
(   9.2976589e-01   2.7906035e-02 0.1)
(   9.2642140e-01   2.8944495e-02 0.1)
(   9.2307692e-01   2.9959461e-02 0.1)
(   9.1973244e-01   3.0951289e-02 0.1)
(   9.1638796e-01   3.1920328e-02 0.1)
(   9.1304348e-01   3.2866924e-02 0.1)
(   9.0969900e-01   3.3791419e-02 0.1)
(   9.0635452e-01   3.4694151e-02 0.1)
(   9.0301003e-01   3.5575455e-02 0.1)
(   8.9966555e-01   3.6435661e-02 0.1)
(   8.9632107e-01   3.7275094e-02 0.1)
(   8.9297659e-01   3.8094077e-02 0.1)
(   8.8963211e-01   3.8892928e-02 0.1)
(   8.8628763e-01   3.9671962e-02 0.1)
(   8.8294314e-01   4.0431488e-02 0.1)
(   8.7959866e-01   4.1171815e-02 0.1)
(   8.7625418e-01   4.1893243e-02 0.1)
(   8.7290970e-01   4.2596072e-02 0.1)
(   8.6956522e-01   4.3280597e-02 0.1)
(   8.6622074e-01   4.3947110e-02 0.1)
(   8.6287625e-01   4.4595897e-02 0.1)
(   8.5953177e-01   4.5227242e-02 0.1)
(   8.5618729e-01   4.5841426e-02 0.1)
(   8.5284281e-01   4.6438724e-02 0.1)
(   8.4949833e-01   4.7019409e-02 0.1)
(   8.4615385e-01   4.7583750e-02 0.1)
(   8.4280936e-01   4.8132011e-02 0.1)
(   8.3946488e-01   4.8664454e-02 0.1)
(   8.3612040e-01   4.9181337e-02 0.1)
(   8.3277592e-01   4.9682914e-02 0.1)
(   8.2943144e-01   5.0169435e-02 0.1)
(   8.2608696e-01   5.0641147e-02 0.1)
(   8.2274247e-01   5.1098294e-02 0.1)
(   8.1939799e-01   5.1541116e-02 0.1)
(   8.1605351e-01   5.1969848e-02 0.1)
(   8.1270903e-01   5.2384723e-02 0.1)
(   8.0936455e-01   5.2785970e-02 0.1)
(   8.0602007e-01   5.3173816e-02 0.1)
(   8.0267559e-01   5.3548483e-02 0.1)
(   7.9933110e-01   5.3910189e-02 0.1)
(   7.9598662e-01   5.4259149e-02 0.1)
(   7.9264214e-01   5.4595577e-02 0.1)
(   7.8929766e-01   5.4919679e-02 0.1)
(   7.8595318e-01   5.5231663e-02 0.1)
(   7.8260870e-01   5.5531729e-02 0.1)
(   7.7926421e-01   5.5820076e-02 0.1)
(   7.7591973e-01   5.6096899e-02 0.1)
(   7.7257525e-01   5.6362391e-02 0.1)
(   7.6923077e-01   5.6616741e-02 0.1)
(   7.6588629e-01   5.6860133e-02 0.1)
(   7.6254181e-01   5.7092749e-02 0.1)
(   7.5919732e-01   5.7314770e-02 0.1)
(   7.5585284e-01   5.7526371e-02 0.1)
(   7.5250836e-01   5.7727724e-02 0.1)
(   7.4916388e-01   5.7918999e-02 0.1)
(   7.4581940e-01   5.8100364e-02 0.1)
(   7.4247492e-01   5.8271980e-02 0.1)
(   7.3913043e-01   5.8434008e-02 0.1)
(   7.3578595e-01   5.8586606e-02 0.1)
(   7.3244147e-01   5.8729927e-02 0.1)
(   7.2909699e-01   5.8864123e-02 0.1)