/*--------------------------------*- C++ -*----------------------------------*\
| =========                 |                                                 |
| \\      /  F ield         | OpenFOAM: The Open Source CFD Toolbox           |
|  \\    /   O peration     | Version:  1.7.1                                 |
|   \\  /    A nd           | Web:      www.OpenFOAM.com                      |
|    \\/     M anipulation  |                                                 |
\*---------------------------------------------------------------------------*/
FoamFile
{
    version     2.0;
    format      ascii;
    class       dictionary;
    object      blockMeshDict;
}
// * * * * * * * * * * * * * * * * * * * * * * * * * * * * * * * * * * * * * //


//Naca 2412

scale 1;

vertices        
(
(	11	  -12.5     0) //0   
(	1	  -12.5	    0) //1      
(3.0100334e-01 -12.5 0)
(   -2 -12.5     0   ) //3
(	-13	   0         0) //4 
 
(   2.0066890e-02  -2.5013568e-02 0)
(   3.0100334e-01  -5.8264001e-02 0)
(	1	   0         0) //7 
(	11	   0         0) //8   
(	11	   12.5	    0) //9  
(	1	   12.5	    0) //10  
(3.0100334e-01 12.5 0)
(   3.0100334e-01   5.8263972e-02 0)
(   2.0066890e-02   2.5013573e-02 0)
(   -2     12.5 0 ) //14


(	11	  -12.5     0.1) //15   
(	1	  -12.5	    0.1) //16    
(3.0100334e-01 -12.5 0.1)
(   -2    -12.5     0.1   ) //18
(	-13	   0         0.1) //19
 
(   2.0066890e-02  -2.5013568e-02 0.1)
(   3.0100334e-01  -5.8264001e-02 0.1)
(	1	   0         0.1) //22 
(	11	   0         0.1) //23   
(	11	   12.5	    0.1) //24  
(	1	   12.5	    0.1) //25  
(3.0100334e-01 12.5 0.1)
(   3.0100334e-01   5.8263972e-02 0.1)
(   2.0066890e-02   2.5013573e-02 0.1)
(   -2     12.5    0.1 ) //29
);

blocks    
(
 hex (15 16 22 23 0 1 7 8)   (310 175 1)  simpleGrading 
    (
        (
            (0.8 190 1)
            (0.2 120 0.2)
        ) 
        (
            (0.95 75 0.4)
            (0.05 100 0.001)
        ) 
        1
    )           // 0

 hex (16 17 21 22 1 2 6 7)   (145  175 1)  simpleGrading
    (
        1 
        (
            (0.95 75 0.4)
            (0.05 100 0.001)
        ) 
        1
    )           // 1  


    hex (17 18 20 21 2 3 5 6)   (75  175 1)  simpleGrading
    (
        1 
        (
            (0.95 75 0.4)
            (0.05 100 0.001)
        ) 
        1
    )           //2


 hex (18 29 28 20 3 14 13 5)   (70  175 1)  simpleGrading 
    (
        1
        (
            (0.95 75 0.4)
            (0.05 100 0.001)
        ) 
        1
    )           // 3  


hex (27 28 29 26 12 13 14 11) (75  175 1)  simpleGrading 
    (
        1
        (
            (0.05 100 1000)
            (0.95 75 2.5)
        )
        1
    )           //4


 hex (22 27 26 25 7 12 11 10) (145  175 1)  simpleGrading 
    (
        1
        (
            (0.05 100 1000)
            (0.95 75 2.5)
        )
        1
    )           // 5

 hex (23 22 25 24 8 7 10 9)   (310 175 1)  simpleGrading 
    (
        (
            (0.8 190 1)
            (0.2 120 0.2)
        ) 
        (
            (0.05 100 1000)
            (0.95 75 2.5)
        ) 
        1
    )           // 6
);


edges           
(
    //inlet
        arc 3 14  (-13 0 0)
        arc 18 29 (-13 0 0.1)


spline 5 13 (
(   2.0066890e-02  -2.5013568e-02 0)
(   1.6722408e-02  -2.2954707e-02 0)
(   1.3377926e-02  -2.0639441e-02 0)
(   1.0033445e-02  -1.7968187e-02 0)
(   6.6889632e-03  -1.4747856e-02 0)
(   3.3444816e-03  -1.0482836e-02 0)
(   0.0000000e+00  -0.0000000e+00 0)
(   3.3444816e-03   1.0482839e-02 0)
(   6.6889632e-03   1.4747860e-02 0)
(   1.0033445e-02   1.7968191e-02 0)
(   1.3377926e-02   2.0639446e-02 0)
(   1.6722408e-02   2.2954712e-02 0)
(   2.0066890e-02   2.5013573e-02 0)

)

spline 20 28 (
(   2.0066890e-02  -2.5013568e-02 0.1)
(   1.6722408e-02  -2.2954707e-02 0.1)
(   1.3377926e-02  -2.0639441e-02 0.1)
(   1.0033445e-02  -1.7968187e-02 0.1)
(   6.6889632e-03  -1.4747856e-02 0.1)
(   3.3444816e-03  -1.0482836e-02 0.1)
(   0.0000000e+00  -0.0000000e+00 0.1)
(   3.3444816e-03   1.0482839e-02 0.1)
(   6.6889632e-03   1.4747860e-02 0.1)
(   1.0033445e-02   1.7968191e-02 0.1)
(   1.3377926e-02   2.0639446e-02 0.1)
(   1.6722408e-02   2.2954712e-02 0.1)
(   2.0066890e-02   2.5013573e-02 0.1)

)


polyLine 12 7 
 (
(   3.0100334e-01   5.8263972e-02 0)
(   3.0434783e-01   5.8169791e-02 0)
(   3.0769231e-01   5.8070250e-02 0)
(   3.1103679e-01   5.7965430e-02 0)
(   3.1438127e-01   5.7855412e-02 0)
(   3.1772575e-01   5.7740273e-02 0)
(   3.2107023e-01   5.7620089e-02 0)
(   3.2441472e-01   5.7494935e-02 0)
(   3.2775920e-01   5.7364885e-02 0)
(   3.3110368e-01   5.7230010e-02 0)
(   3.3444816e-01   5.7090382e-02 0)
(   3.3779264e-01   5.6946069e-02 0)
(   3.4113712e-01   5.6797141e-02 0)
(   3.4448161e-01   5.6643665e-02 0)
(   3.4782609e-01   5.6485706e-02 0)
(   3.5117057e-01   5.6323329e-02 0)
(   3.5451505e-01   5.6156599e-02 0)
(   3.5785953e-01   5.5985578e-02 0)
(   3.6120401e-01   5.5810328e-02 0)
(   3.6454849e-01   5.5630910e-02 0)
(   3.6789298e-01   5.5447384e-02 0)
(   3.7123746e-01   5.5259810e-02 0)
(   3.7458194e-01   5.5068246e-02 0)
(   3.7792642e-01   5.4872749e-02 0)
(   3.8127090e-01   5.4673377e-02 0)
(   3.8461538e-01   5.4470185e-02 0)
(   3.8795987e-01   5.4263229e-02 0)
(   3.9130435e-01   5.4052564e-02 0)
(   3.9464883e-01   5.3838243e-02 0)
(   3.9799331e-01   5.3620319e-02 0)
(   4.0133779e-01   5.3398847e-02 0)
(   4.0468227e-01   5.3173877e-02 0)
(   4.0802676e-01   5.2945461e-02 0)
(   4.1137124e-01   5.2713650e-02 0)
(   4.1471572e-01   5.2478496e-02 0)
(   4.1806020e-01   5.2240046e-02 0)
(   4.2140468e-01   5.1998353e-02 0)
(   4.2474916e-01   5.1753463e-02 0)
(   4.2809365e-01   5.1505426e-02 0)
(   4.3143813e-01   5.1254290e-02 0)
(   4.3478261e-01   5.1000102e-02 0)
(   4.3812709e-01   5.0742910e-02 0)
(   4.4147157e-01   5.0482761e-02 0)
(   4.4481605e-01   5.0219701e-02 0)
(   4.4816054e-01   4.9953776e-02 0)
(   4.5150502e-01   4.9685032e-02 0)
(   4.5484950e-01   4.9413515e-02 0)
(   4.5819398e-01   4.9139270e-02 0)
(   4.6153846e-01   4.8862342e-02 0)
(   4.6488294e-01   4.8582775e-02 0)
(   4.6822742e-01   4.8300613e-02 0)
(   4.7157191e-01   4.8015901e-02 0)
(   4.7491639e-01   4.7728683e-02 0)
(   4.7826087e-01   4.7439001e-02 0)
(   4.8160535e-01   4.7146900e-02 0)
(   4.8494983e-01   4.6852422e-02 0)
(   4.8829431e-01   4.6555611e-02 0)
(   4.9163880e-01   4.6256509e-02 0)
(   4.9498328e-01   4.5955158e-02 0)
(   4.9832776e-01   4.5651602e-02 0)
(   5.0167224e-01   4.5345881e-02 0)
(   5.0501672e-01   4.5038039e-02 0)
(   5.0836120e-01   4.4728118e-02 0)
(   5.1170569e-01   4.4416158e-02 0)
(   5.1505017e-01   4.4102202e-02 0)
(   5.1839465e-01   4.3786291e-02 0)
(   5.2173913e-01   4.3468466e-02 0)
(   5.2508361e-01   4.3148770e-02 0)
(   5.2842809e-01   4.2827242e-02 0)
(   5.3177258e-01   4.2503925e-02 0)
(   5.3511706e-01   4.2178859e-02 0)
(   5.3846154e-01   4.1852086e-02 0)
(   5.4180602e-01   4.1523646e-02 0)
(   5.4515050e-01   4.1193580e-02 0)
(   5.4849498e-01   4.0861930e-02 0)
(   5.5183946e-01   4.0528735e-02 0)
(   5.5518395e-01   4.0194037e-02 0)
(   5.5852843e-01   3.9857876e-02 0)
(   5.6187291e-01   3.9520294e-02 0)
(   5.6521739e-01   3.9181330e-02 0)
(   5.6856187e-01   3.8841026e-02 0)
(   5.7190635e-01   3.8499423e-02 0)
(   5.7525084e-01   3.8156561e-02 0)
(   5.7859532e-01   3.7812480e-02 0)
(   5.8193980e-01   3.7467222e-02 0)
(   5.8528428e-01   3.7120828e-02 0)
(   5.8862876e-01   3.6773337e-02 0)
(   5.9197324e-01   3.6424792e-02 0)
(   5.9531773e-01   3.6075233e-02 0)
(   5.9866221e-01   3.5724700e-02 0)
(   6.0200669e-01   3.5373236e-02 0)
(   6.0535117e-01   3.5020880e-02 0)
(   6.0869565e-01   3.4667675e-02 0)
(   6.1204013e-01   3.4313660e-02 0)
(   6.1538462e-01   3.3958879e-02 0)
(   6.1872910e-01   3.3603371e-02 0)
(   6.2207358e-01   3.3247178e-02 0)
(   6.2541806e-01   3.2890342e-02 0)
(   6.2876254e-01   3.2532904e-02 0)
(   6.3210702e-01   3.2174907e-02 0)
(   6.3545151e-01   3.1816391e-02 0)
(   6.3879599e-01   3.1457398e-02 0)
(   6.4214047e-01   3.1097972e-02 0)
(   6.4548495e-01   3.0738153e-02 0)
(   6.4882943e-01   3.0377984e-02 0)
(   6.5217391e-01   3.0017508e-02 0)
(   6.5551839e-01   2.9656766e-02 0)
(   6.5886288e-01   2.9295802e-02 0)
(   6.6220736e-01   2.8934658e-02 0)
(   6.6555184e-01   2.8573377e-02 0)
(   6.6889632e-01   2.8212002e-02 0)
(   6.7224080e-01   2.7850576e-02 0)
(   6.7558528e-01   2.7489142e-02 0)
(   6.7892977e-01   2.7127745e-02 0)
(   6.8227425e-01   2.6766427e-02 0)
(   6.8561873e-01   2.6405232e-02 0)
(   6.8896321e-01   2.6044204e-02 0)
(   6.9230769e-01   2.5683388e-02 0)
(   6.9565217e-01   2.5322827e-02 0)
(   6.9899666e-01   2.4962566e-02 0)
(   7.0234114e-01   2.4602650e-02 0)
(   7.0568562e-01   2.4243123e-02 0)
(   7.0903010e-01   2.3884031e-02 0)
(   7.1237458e-01   2.3525418e-02 0)
(   7.1571906e-01   2.3167329e-02 0)
(   7.1906355e-01   2.2809811e-02 0)
(   7.2240803e-01   2.2452909e-02 0)
(   7.2575251e-01   2.2096669e-02 0)
(   7.2909699e-01   2.1741137e-02 0)
(   7.3244147e-01   2.1386360e-02 0)
(   7.3578595e-01   2.1032383e-02 0)
(   7.3913043e-01   2.0679254e-02 0)
(   7.4247492e-01   2.0327020e-02 0)
(   7.4581940e-01   1.9975727e-02 0)
(   7.4916388e-01   1.9625424e-02 0)
(   7.5250836e-01   1.9276157e-02 0)
(   7.5585284e-01   1.8927975e-02 0)
(   7.5919732e-01   1.8580925e-02 0)
(   7.6254181e-01   1.8235057e-02 0)
(   7.6588629e-01   1.7890417e-02 0)
(   7.6923077e-01   1.7547056e-02 0)
(   7.7257525e-01   1.7205021e-02 0)
(   7.7591973e-01   1.6864363e-02 0)
(   7.7926421e-01   1.6525131e-02 0)
(   7.8260870e-01   1.6187374e-02 0)
(   7.8595318e-01   1.5851142e-02 0)
(   7.8929766e-01   1.5516486e-02 0)
(   7.9264214e-01   1.5183455e-02 0)
(   7.9598662e-01   1.4852101e-02 0)
(   7.9933110e-01   1.4522475e-02 0)
(   8.0267559e-01   1.4194627e-02 0)
(   8.0602007e-01   1.3868610e-02 0)
(   8.0936455e-01   1.3544474e-02 0)
(   8.1270903e-01   1.3222272e-02 0)
(   8.1605351e-01   1.2902056e-02 0)
(   8.1939799e-01   1.2583879e-02 0)
(   8.2274247e-01   1.2267793e-02 0)
(   8.2608696e-01   1.1953852e-02 0)
(   8.2943144e-01   1.1642108e-02 0)
(   8.3277592e-01   1.1332615e-02 0)
(   8.3612040e-01   1.1025428e-02 0)
(   8.3946488e-01   1.0720600e-02 0)
(   8.4280936e-01   1.0418186e-02 0)
(   8.4615385e-01   1.0118240e-02 0)
(   8.4949833e-01   9.8208179e-03 0)
(   8.5284281e-01   9.5259745e-03 0)
(   8.5618729e-01   9.2337655e-03 0)
(   8.5953177e-01   8.9442468e-03 0)
(   8.6287625e-01   8.6574745e-03 0)
(   8.6622074e-01   8.3735051e-03 0)
(   8.6956522e-01   8.0923955e-03 0)
(   8.7290970e-01   7.8142026e-03 0)
(   8.7625418e-01   7.5389839e-03 0)
(   8.7959866e-01   7.2667969e-03 0)
(   8.8294314e-01   6.9976998e-03 0)
(   8.8628763e-01   6.7317508e-03 0)
(   8.8963211e-01   6.4690085e-03 0)
(   8.9297659e-01   6.2095318e-03 0)
(   8.9632107e-01   5.9533799e-03 0)
(   8.9966555e-01   5.7006124e-03 0)
(   9.0301003e-01   5.4512892e-03 0)
(   9.0635452e-01   5.2054703e-03 0)
(   9.0969900e-01   4.9632163e-03 0)
(   9.1304348e-01   4.7245881e-03 0)
(   9.1638796e-01   4.4896467e-03 0)
(   9.1973244e-01   4.2584536e-03 0)
(   9.2307692e-01   4.0310707e-03 0)
(   9.2642140e-01   3.8075600e-03 0)
(   9.2976589e-01   3.5879840e-03 0)
(   9.3311037e-01   3.3724054e-03 0)
(   9.3645485e-01   3.1608875e-03 0)
(   9.3979933e-01   2.9534936e-03 0)
(   9.4314381e-01   2.7502875e-03 0)
(   9.4648829e-01   2.5513334e-03 0)
(   9.4983278e-01   2.3566957e-03 0)
(   9.5317726e-01   2.1664393e-03 0)
(   9.5652174e-01   1.9806292e-03 0)
(   9.5986622e-01   1.7993311e-03 0)
(   9.6321070e-01   1.6226107e-03 0)
(   9.6655518e-01   1.4505342e-03 0)
(   9.6989967e-01   1.2831682e-03 0)
(   9.7324415e-01   1.1205796e-03 0)
(   9.7658863e-01   9.6283557e-04 0)
(   9.7993311e-01   8.1000376e-04 0)
(   9.8327759e-01   6.6215213e-04 0)
(   9.8662207e-01   5.1934897e-04 0)
(   9.8996656e-01   3.8166297e-04 0)
(   9.9331104e-01   2.4916315e-04 0)
(   9.9665552e-01   1.2191891e-04 0)
(   1.0000000e+00   0.0000000e+00 0)

)

 polyLine 13 12
 (
(   2.0066890e-02   2.5013573e-02 0)
(   2.3411371e-02   2.6875511e-02 0)
(   2.6755853e-02   2.8579499e-02 0)
(   3.0100334e-02   3.0152756e-02 0)
(   3.3444816e-02   3.1615207e-02 0)
(   3.6789298e-02   3.2981980e-02 0)
(   4.0133779e-02   3.4264892e-02 0)
(   4.3478261e-02   3.5473391e-02 0)
(   4.6822742e-02   3.6615180e-02 0)
(   5.0167224e-02   3.7696645e-02 0)
(   5.3511706e-02   3.8723150e-02 0)
(   5.6856187e-02   3.9699257e-02 0)
(   6.0200669e-02   4.0628889e-02 0)
(   6.3545151e-02   4.1515448e-02 0)
(   6.6889632e-02   4.2361912e-02 0)
(   7.0234114e-02   4.3170903e-02 0)
(   7.3578595e-02   4.3944749e-02 0)
(   7.6923077e-02   4.4685525e-02 0)
(   8.0267559e-02   4.5395095e-02 0)
(   8.3612040e-02   4.6075138e-02 0)
(   8.6956522e-02   4.6727178e-02 0)
(   9.0301003e-02   4.7352597e-02 0)
(   9.3645485e-02   4.7952660e-02 0)
(   9.6989967e-02   4.8528524e-02 0)
(   1.0033445e-01   4.9081256e-02 0)
(   1.0367893e-01   4.9611837e-02 0)
(   1.0702341e-01   5.0121174e-02 0)
(   1.1036789e-01   5.0610112e-02 0)
(   1.1371237e-01   5.1079431e-02 0)
(   1.1705686e-01   5.1529864e-02 0)
(   1.2040134e-01   5.1962089e-02 0)
(   1.2374582e-01   5.2376747e-02 0)
(   1.2709030e-01   5.2774434e-02 0)
(   1.3043478e-01   5.3155713e-02 0)
(   1.3377926e-01   5.3521113e-02 0)
(   1.3712375e-01   5.3871132e-02 0)
(   1.4046823e-01   5.4206241e-02 0)
(   1.4381271e-01   5.4526885e-02 0)
(   1.4715719e-01   5.4833486e-02 0)
(   1.5050167e-01   5.5126443e-02 0)
(   1.5384615e-01   5.5406137e-02 0)
(   1.5719064e-01   5.5672928e-02 0)
(   1.6053512e-01   5.5927161e-02 0)
(   1.6387960e-01   5.6169161e-02 0)
(   1.6722408e-01   5.6399243e-02 0)
(   1.7056856e-01   5.6617704e-02 0)
(   1.7391304e-01   5.6824829e-02 0)
(   1.7725753e-01   5.7020893e-02 0)
(   1.8060201e-01   5.7206155e-02 0)
(   1.8394649e-01   5.7380867e-02 0)
(   1.8729097e-01   5.7545270e-02 0)
(   1.9063545e-01   5.7699594e-02 0)
(   1.9397993e-01   5.7844062e-02 0)
(   1.9732441e-01   5.7978887e-02 0)
(   2.0066890e-01   5.8104275e-02 0)
(   2.0401338e-01   5.8220425e-02 0)
(   2.0735786e-01   5.8327526e-02 0)
(   2.1070234e-01   5.8425764e-02 0)
(   2.1404682e-01   5.8515317e-02 0)
(   2.1739130e-01   5.8596356e-02 0)
(   2.2073579e-01   5.8669048e-02 0)
(   2.2408027e-01   5.8733553e-02 0)
(   2.2742475e-01   5.8790026e-02 0)
(   2.3076923e-01   5.8838620e-02 0)
(   2.3411371e-01   5.8879479e-02 0)
(   2.3745819e-01   5.8912745e-02 0)
(   2.4080268e-01   5.8938556e-02 0)
(   2.4414716e-01   5.8957045e-02 0)
(   2.4749164e-01   5.8968341e-02 0)
(   2.5083612e-01   5.8972570e-02 0)
(   2.5418060e-01   5.8969854e-02 0)
(   2.5752508e-01   5.8960312e-02 0)
(   2.6086957e-01   5.8944061e-02 0)
(   2.6421405e-01   5.8921212e-02 0)
(   2.6755853e-01   5.8891876e-02 0)
(   2.7090301e-01   5.8856158e-02 0)
(   2.7424749e-01   5.8814165e-02 0)
(   2.7759197e-01   5.8765996e-02 0)
(   2.8093645e-01   5.8711753e-02 0)
(   2.8428094e-01   5.8651530e-02 0)
(   2.8762542e-01   5.8585423e-02 0)
(   2.9096990e-01   5.8513525e-02 0)
(   2.9431438e-01   5.8435925e-02 0)
(   2.9765886e-01   5.8352712e-02 0)
(   3.0100334e-01   5.8263972e-02 0)
 )

 polyLine 27 22
 (
(   3.0100334e-01   5.8263972e-02 0.1)
(   3.0434783e-01   5.8169791e-02 0.1)
(   3.0769231e-01   5.8070250e-02 0.1)
(   3.1103679e-01   5.7965430e-02 0.1)
(   3.1438127e-01   5.7855412e-02 0.1)
(   3.1772575e-01   5.7740273e-02 0.1)
(   3.2107023e-01   5.7620089e-02 0.1)
(   3.2441472e-01   5.7494935e-02 0.1)
(   3.2775920e-01   5.7364885e-02 0.1)
(   3.3110368e-01   5.7230010e-02 0.1)
(   3.3444816e-01   5.7090382e-02 0.1)
(   3.3779264e-01   5.6946069e-02 0.1)
(   3.4113712e-01   5.6797141e-02 0.1)
(   3.4448161e-01   5.6643665e-02 0.1)
(   3.4782609e-01   5.6485706e-02 0.1)
(   3.5117057e-01   5.6323329e-02 0.1)
(   3.5451505e-01   5.6156599e-02 0.1)
(   3.5785953e-01   5.5985578e-02 0.1)
(   3.6120401e-01   5.5810328e-02 0.1)
(   3.6454849e-01   5.5630910e-02 0.1)
(   3.6789298e-01   5.5447384e-02 0.1)
(   3.7123746e-01   5.5259810e-02 0.1)
(   3.7458194e-01   5.5068246e-02 0.1)
(   3.7792642e-01   5.4872749e-02 0.1)
(   3.8127090e-01   5.4673377e-02 0.1)
(   3.8461538e-01   5.4470185e-02 0.1)
(   3.8795987e-01   5.4263229e-02 0.1)
(   3.9130435e-01   5.4052564e-02 0.1)
(   3.9464883e-01   5.3838243e-02 0.1)
(   3.9799331e-01   5.3620319e-02 0.1)
(   4.0133779e-01   5.3398847e-02 0.1)
(   4.0468227e-01   5.3173877e-02 0.1)
(   4.0802676e-01   5.2945461e-02 0.1)
(   4.1137124e-01   5.2713650e-02 0.1)
(   4.1471572e-01   5.2478496e-02 0.1)
(   4.1806020e-01   5.2240046e-02 0.1)
(   4.2140468e-01   5.1998353e-02 0.1)
(   4.2474916e-01   5.1753463e-02 0.1)
(   4.2809365e-01   5.1505426e-02 0.1)
(   4.3143813e-01   5.1254290e-02 0.1)
(   4.3478261e-01   5.1000102e-02 0.1)
(   4.3812709e-01   5.0742910e-02 0.1)
(   4.4147157e-01   5.0482761e-02 0.1)
(   4.4481605e-01   5.0219701e-02 0.1)
(   4.4816054e-01   4.9953776e-02 0.1)
(   4.5150502e-01   4.9685032e-02 0.1)
(   4.5484950e-01   4.9413515e-02 0.1)
(   4.5819398e-01   4.9139270e-02 0.1)
(   4.6153846e-01   4.8862342e-02 0.1)
(   4.6488294e-01   4.8582775e-02 0.1)
(   4.6822742e-01   4.8300613e-02 0.1)
(   4.7157191e-01   4.8015901e-02 0.1)
(   4.7491639e-01   4.7728683e-02 0.1)
(   4.7826087e-01   4.7439001e-02 0.1)
(   4.8160535e-01   4.7146900e-02 0.1)
(   4.8494983e-01   4.6852422e-02 0.1)
(   4.8829431e-01   4.6555611e-02 0.1)
(   4.9163880e-01   4.6256509e-02 0.1)
(   4.9498328e-01   4.5955158e-02 0.1)
(   4.9832776e-01   4.5651602e-02 0.1)
(   5.0167224e-01   4.5345881e-02 0.1)
(   5.0501672e-01   4.5038039e-02 0.1)
(   5.0836120e-01   4.4728118e-02 0.1)
(   5.1170569e-01   4.4416158e-02 0.1)
(   5.1505017e-01   4.4102202e-02 0.1)
(   5.1839465e-01   4.3786291e-02 0.1)
(   5.2173913e-01   4.3468466e-02 0.1)
(   5.2508361e-01   4.3148770e-02 0.1)
(   5.2842809e-01   4.2827242e-02 0.1)
(   5.3177258e-01   4.2503925e-02 0.1)
(   5.3511706e-01   4.2178859e-02 0.1)
(   5.3846154e-01   4.1852086e-02 0.1)
(   5.4180602e-01   4.1523646e-02 0.1)
(   5.4515050e-01   4.1193580e-02 0.1)
(   5.4849498e-01   4.0861930e-02 0.1)
(   5.5183946e-01   4.0528735e-02 0.1)
(   5.5518395e-01   4.0194037e-02 0.1)
(   5.5852843e-01   3.9857876e-02 0.1)
(   5.6187291e-01   3.9520294e-02 0.1)
(   5.6521739e-01   3.9181330e-02 0.1)
(   5.6856187e-01   3.8841026e-02 0.1)
(   5.7190635e-01   3.8499423e-02 0.1)
(   5.7525084e-01   3.8156561e-02 0.1)
(   5.7859532e-01   3.7812480e-02 0.1)
(   5.8193980e-01   3.7467222e-02 0.1)
(   5.8528428e-01   3.7120828e-02 0.1)
(   5.8862876e-01   3.6773337e-02 0.1)
(   5.9197324e-01   3.6424792e-02 0.1)
(   5.9531773e-01   3.6075233e-02 0.1)
(   5.9866221e-01   3.5724700e-02 0.1)
(   6.0200669e-01   3.5373236e-02 0.1)
(   6.0535117e-01   3.5020880e-02 0.1)
(   6.0869565e-01   3.4667675e-02 0.1)
(   6.1204013e-01   3.4313660e-02 0.1)
(   6.1538462e-01   3.3958879e-02 0.1)
(   6.1872910e-01   3.3603371e-02 0.1)
(   6.2207358e-01   3.3247178e-02 0.1)
(   6.2541806e-01   3.2890342e-02 0.1)
(   6.2876254e-01   3.2532904e-02 0.1)
(   6.3210702e-01   3.2174907e-02 0.1)
(   6.3545151e-01   3.1816391e-02 0.1)
(   6.3879599e-01   3.1457398e-02 0.1)
(   6.4214047e-01   3.1097972e-02 0.1)
(   6.4548495e-01   3.0738153e-02 0.1)
(   6.4882943e-01   3.0377984e-02 0.1)
(   6.5217391e-01   3.0017508e-02 0.1)
(   6.5551839e-01   2.9656766e-02 0.1)
(   6.5886288e-01   2.9295802e-02 0.1)
(   6.6220736e-01   2.8934658e-02 0.1)
(   6.6555184e-01   2.8573377e-02 0.1)
(   6.6889632e-01   2.8212002e-02 0.1)
(   6.7224080e-01   2.7850576e-02 0.1)
(   6.7558528e-01   2.7489142e-02 0.1)
(   6.7892977e-01   2.7127745e-02 0.1)
(   6.8227425e-01   2.6766427e-02 0.1)
(   6.8561873e-01   2.6405232e-02 0.1)
(   6.8896321e-01   2.6044204e-02 0.1)
(   6.9230769e-01   2.5683388e-02 0.1)
(   6.9565217e-01   2.5322827e-02 0.1)
(   6.9899666e-01   2.4962566e-02 0.1)
(   7.0234114e-01   2.4602650e-02 0.1)
(   7.0568562e-01   2.4243123e-02 0.1)
(   7.0903010e-01   2.3884031e-02 0.1)
(   7.1237458e-01   2.3525418e-02 0.1)
(   7.1571906e-01   2.3167329e-02 0.1)
(   7.1906355e-01   2.2809811e-02 0.1)
(   7.2240803e-01   2.2452909e-02 0.1)
(   7.2575251e-01   2.2096669e-02 0.1)
(   7.2909699e-01   2.1741137e-02 0.1)
(   7.3244147e-01   2.1386360e-02 0.1)
(   7.3578595e-01   2.1032383e-02 0.1)
(   7.3913043e-01   2.0679254e-02 0.1)
(   7.4247492e-01   2.0327020e-02 0.1)
(   7.4581940e-01   1.9975727e-02 0.1)
(   7.4916388e-01   1.9625424e-02 0.1)
(   7.5250836e-01   1.9276157e-02 0.1)
(   7.5585284e-01   1.8927975e-02 0.1)
(   7.5919732e-01   1.8580925e-02 0.1)
(   7.6254181e-01   1.8235057e-02 0.1)
(   7.6588629e-01   1.7890417e-02 0.1)
(   7.6923077e-01   1.7547056e-02 0.1)
(   7.7257525e-01   1.7205021e-02 0.1)
(   7.7591973e-01   1.6864363e-02 0.1)
(   7.7926421e-01   1.6525131e-02 0.1)
(   7.8260870e-01   1.6187374e-02 0.1)
(   7.8595318e-01   1.5851142e-02 0.1)
(   7.8929766e-01   1.5516486e-02 0.1)
(   7.9264214e-01   1.5183455e-02 0.1)
(   7.9598662e-01   1.4852101e-02 0.1)
(   7.9933110e-01   1.4522475e-02 0.1)
(   8.0267559e-01   1.4194627e-02 0.1)
(   8.0602007e-01   1.3868610e-02 0.1)
(   8.0936455e-01   1.3544474e-02 0.1)
(   8.1270903e-01   1.3222272e-02 0.1)
(   8.1605351e-01   1.2902056e-02 0.1)
(   8.1939799e-01   1.2583879e-02 0.1)
(   8.2274247e-01   1.2267793e-02 0.1)
(   8.2608696e-01   1.1953852e-02 0.1)
(   8.2943144e-01   1.1642108e-02 0.1)
(   8.3277592e-01   1.1332615e-02 0.1)
(   8.3612040e-01   1.1025428e-02 0.1)
(   8.3946488e-01   1.0720600e-02 0.1)
(   8.4280936e-01   1.0418186e-02 0.1)
(   8.4615385e-01   1.0118240e-02 0.1)
(   8.4949833e-01   9.8208179e-03 0.1)
(   8.5284281e-01   9.5259745e-03 0.1)
(   8.5618729e-01   9.2337655e-03 0.1)
(   8.5953177e-01   8.9442468e-03 0.1)
(   8.6287625e-01   8.6574745e-03 0.1)
(   8.6622074e-01   8.3735051e-03 0.1)
(   8.6956522e-01   8.0923955e-03 0.1)
(   8.7290970e-01   7.8142026e-03 0.1)
(   8.7625418e-01   7.5389839e-03 0.1)
(   8.7959866e-01   7.2667969e-03 0.1)
(   8.8294314e-01   6.9976998e-03 0.1)
(   8.8628763e-01   6.7317508e-03 0.1)
(   8.8963211e-01   6.4690085e-03 0.1)
(   8.9297659e-01   6.2095318e-03 0.1)
(   8.9632107e-01   5.9533799e-03 0.1)
(   8.9966555e-01   5.7006124e-03 0.1)
(   9.0301003e-01   5.4512892e-03 0.1)
(   9.0635452e-01   5.2054703e-03 0.1)
(   9.0969900e-01   4.9632163e-03 0.1)
(   9.1304348e-01   4.7245881e-03 0.1)
(   9.1638796e-01   4.4896467e-03 0.1)
(   9.1973244e-01   4.2584536e-03 0.1)
(   9.2307692e-01   4.0310707e-03 0.1)
(   9.2642140e-01   3.8075600e-03 0.1)
(   9.2976589e-01   3.5879840e-03 0.1)
(   9.3311037e-01   3.3724054e-03 0.1)
(   9.3645485e-01   3.1608875e-03 0.1)
(   9.3979933e-01   2.9534936e-03 0.1)
(   9.4314381e-01   2.7502875e-03 0.1)
(   9.4648829e-01   2.5513334e-03 0.1)
(   9.4983278e-01   2.3566957e-03 0.1)
(   9.5317726e-01   2.1664393e-03 0.1)
(   9.5652174e-01   1.9806292e-03 0.1)
(   9.5986622e-01   1.7993311e-03 0.1)
(   9.6321070e-01   1.6226107e-03 0.1)
(   9.6655518e-01   1.4505342e-03 0.1)
(   9.6989967e-01   1.2831682e-03 0.1)
(   9.7324415e-01   1.1205796e-03 0.1)
(   9.7658863e-01   9.6283557e-04 0.1)
(   9.7993311e-01   8.1000376e-04 0.1)
(   9.8327759e-01   6.6215213e-04 0.1)
(   9.8662207e-01   5.1934897e-04 0.1)
(   9.8996656e-01   3.8166297e-04 0.1)
(   9.9331104e-01   2.4916315e-04 0.1)
(   9.9665552e-01   1.2191891e-04 0.1)
(   1.0000000e+00   0.0000000e+00 0.1)

 )

 polyLine 28 27
 ( 
(   2.0066890e-02   2.5013573e-02 0.1)
(   2.3411371e-02   2.6875511e-02 0.1)
(   2.6755853e-02   2.8579499e-02 0.1)
(   3.0100334e-02   3.0152756e-02 0.1)
(   3.3444816e-02   3.1615207e-02 0.1)
(   3.6789298e-02   3.2981980e-02 0.1)
(   4.0133779e-02   3.4264892e-02 0.1)
(   4.3478261e-02   3.5473391e-02 0.1)
(   4.6822742e-02   3.6615180e-02 0.1)
(   5.0167224e-02   3.7696645e-02 0.1)
(   5.3511706e-02   3.8723150e-02 0.1)
(   5.6856187e-02   3.9699257e-02 0.1)
(   6.0200669e-02   4.0628889e-02 0.1)
(   6.3545151e-02   4.1515448e-02 0.1)
(   6.6889632e-02   4.2361912e-02 0.1)
(   7.0234114e-02   4.3170903e-02 0.1)
(   7.3578595e-02   4.3944749e-02 0.1)
(   7.6923077e-02   4.4685525e-02 0.1)
(   8.0267559e-02   4.5395095e-02 0.1)
(   8.3612040e-02   4.6075138e-02 0.1)
(   8.6956522e-02   4.6727178e-02 0.1)
(   9.0301003e-02   4.7352597e-02 0.1)
(   9.3645485e-02   4.7952660e-02 0.1)
(   9.6989967e-02   4.8528524e-02 0.1)
(   1.0033445e-01   4.9081256e-02 0.1)
(   1.0367893e-01   4.9611837e-02 0.1)
(   1.0702341e-01   5.0121174e-02 0.1)
(   1.1036789e-01   5.0610112e-02 0.1)
(   1.1371237e-01   5.1079431e-02 0.1)
(   1.1705686e-01   5.1529864e-02 0.1)
(   1.2040134e-01   5.1962089e-02 0.1)
(   1.2374582e-01   5.2376747e-02 0.1)
(   1.2709030e-01   5.2774434e-02 0.1)
(   1.3043478e-01   5.3155713e-02 0.1)
(   1.3377926e-01   5.3521113e-02 0.1)
(   1.3712375e-01   5.3871132e-02 0.1)
(   1.4046823e-01   5.4206241e-02 0.1)
(   1.4381271e-01   5.4526885e-02 0.1)
(   1.4715719e-01   5.4833486e-02 0.1)
(   1.5050167e-01   5.5126443e-02 0.1)
(   1.5384615e-01   5.5406137e-02 0.1)
(   1.5719064e-01   5.5672928e-02 0.1)
(   1.6053512e-01   5.5927161e-02 0.1)
(   1.6387960e-01   5.6169161e-02 0.1)
(   1.6722408e-01   5.6399243e-02 0.1)
(   1.7056856e-01   5.6617704e-02 0.1)
(   1.7391304e-01   5.6824829e-02 0.1)
(   1.7725753e-01   5.7020893e-02 0.1)
(   1.8060201e-01   5.7206155e-02 0.1)
(   1.8394649e-01   5.7380867e-02 0.1)
(   1.8729097e-01   5.7545270e-02 0.1)
(   1.9063545e-01   5.7699594e-02 0.1)
(   1.9397993e-01   5.7844062e-02 0.1)
(   1.9732441e-01   5.7978887e-02 0.1)
(   2.0066890e-01   5.8104275e-02 0.1)
(   2.0401338e-01   5.8220425e-02 0.1)
(   2.0735786e-01   5.8327526e-02 0.1)
(   2.1070234e-01   5.8425764e-02 0.1)
(   2.1404682e-01   5.8515317e-02 0.1)
(   2.1739130e-01   5.8596356e-02 0.1)
(   2.2073579e-01   5.8669048e-02 0.1)
(   2.2408027e-01   5.8733553e-02 0.1)
(   2.2742475e-01   5.8790026e-02 0.1)
(   2.3076923e-01   5.8838620e-02 0.1)
(   2.3411371e-01   5.8879479e-02 0.1)
(   2.3745819e-01   5.8912745e-02 0.1)
(   2.4080268e-01   5.8938556e-02 0.1)
(   2.4414716e-01   5.8957045e-02 0.1)
(   2.4749164e-01   5.8968341e-02 0.1)
(   2.5083612e-01   5.8972570e-02 0.1)
(   2.5418060e-01   5.8969854e-02 0.1)
(   2.5752508e-01   5.8960312e-02 0.1)
(   2.6086957e-01   5.8944061e-02 0.1)
(   2.6421405e-01   5.8921212e-02 0.1)
(   2.6755853e-01   5.8891876e-02 0.1)
(   2.7090301e-01   5.8856158e-02 0.1)
(   2.7424749e-01   5.8814165e-02 0.1)
(   2.7759197e-01   5.8765996e-02 0.1)
(   2.8093645e-01   5.8711753e-02 0.1)
(   2.8428094e-01   5.8651530e-02 0.1)
(   2.8762542e-01   5.8585423e-02 0.1)
(   2.9096990e-01   5.8513525e-02 0.1)
(   2.9431438e-01   5.8435925e-02 0.1)
(   2.9765886e-01   5.8352712e-02 0.1)
(   3.0100334e-01   5.8263972e-02 0.1)
 )

polyLine 22 21 
 (
(   1.0000000e+00   0.0000000e+00 0.1)
(   9.9665552e-01  -1.2191894e-04 0.1)
(   9.9331104e-01  -2.4916320e-04 0.1)
(   9.8996656e-01  -3.8166304e-04 0.1)
(   9.8662207e-01  -5.1934906e-04 0.1)
(   9.8327759e-01  -6.6215222e-04 0.1)
(   9.7993311e-01  -8.1000386e-04 0.1)
(   9.7658863e-01  -9.6283567e-04 0.1)
(   9.7324415e-01  -1.1205797e-03 0.1)
(   9.6989967e-01  -1.2831683e-03 0.1)
(   9.6655518e-01  -1.4505343e-03 0.1)
(   9.6321070e-01  -1.6226108e-03 0.1)
(   9.5986622e-01  -1.7993312e-03 0.1)
(   9.5652174e-01  -1.9806293e-03 0.1)
(   9.5317726e-01  -2.1664393e-03 0.1)
(   9.4983278e-01  -2.3566958e-03 0.1)
(   9.4648829e-01  -2.5513334e-03 0.1)
(   9.4314381e-01  -2.7502875e-03 0.1)
(   9.3979933e-01  -2.9534936e-03 0.1)
(   9.3645485e-01  -3.1608874e-03 0.1)
(   9.3311037e-01  -3.3724054e-03 0.1)
(   9.2976589e-01  -3.5879839e-03 0.1)
(   9.2642140e-01  -3.8075599e-03 0.1)
(   9.2307692e-01  -4.0310706e-03 0.1)
(   9.1973244e-01  -4.2584535e-03 0.1)
(   9.1638796e-01  -4.4896466e-03 0.1)
(   9.1304348e-01  -4.7245879e-03 0.1)
(   9.0969900e-01  -4.9632162e-03 0.1)
(   9.0635452e-01  -5.2054701e-03 0.1)
(   9.0301003e-01  -5.4512890e-03 0.1)
(   8.9966555e-01  -5.7006122e-03 0.1)
(   8.9632107e-01  -5.9533797e-03 0.1)
(   8.9297659e-01  -6.2095316e-03 0.1)
(   8.8963211e-01  -6.4690083e-03 0.1)
(   8.8628763e-01  -6.7317506e-03 0.1)
(   8.8294314e-01  -6.9976996e-03 0.1)
(   8.7959866e-01  -7.2667967e-03 0.1)
(   8.7625418e-01  -7.5389836e-03 0.1)
(   8.7290970e-01  -7.8142024e-03 0.1)
(   8.6956522e-01  -8.0923953e-03 0.1)
(   8.6622074e-01  -8.3735049e-03 0.1)
(   8.6287625e-01  -8.6574743e-03 0.1)
(   8.5953177e-01  -8.9442466e-03 0.1)
(   8.5618729e-01  -9.2337653e-03 0.1)
(   8.5284281e-01  -9.5259744e-03 0.1)
(   8.4949833e-01  -9.8208178e-03 0.1)
(   8.4615385e-01  -1.0118240e-02 0.1)
(   8.4280936e-01  -1.0418186e-02 0.1)
(   8.3946488e-01  -1.0720600e-02 0.1)
(   8.3612040e-01  -1.1025428e-02 0.1)
(   8.3277592e-01  -1.1332615e-02 0.1)
(   8.2943144e-01  -1.1642108e-02 0.1)
(   8.2608696e-01  -1.1953852e-02 0.1)
(   8.2274247e-01  -1.2267793e-02 0.1)
(   8.1939799e-01  -1.2583879e-02 0.1)
(   8.1605351e-01  -1.2902057e-02 0.1)
(   8.1270903e-01  -1.3222273e-02 0.1)
(   8.0936455e-01  -1.3544475e-02 0.1)
(   8.0602007e-01  -1.3868610e-02 0.1)
(   8.0267559e-01  -1.4194628e-02 0.1)
(   7.9933110e-01  -1.4522476e-02 0.1)
(   7.9598662e-01  -1.4852102e-02 0.1)
(   7.9264214e-01  -1.5183456e-02 0.1)
(   7.8929766e-01  -1.5516487e-02 0.1)
(   7.8595318e-01  -1.5851143e-02 0.1)
(   7.8260870e-01  -1.6187375e-02 0.1)
(   7.7926421e-01  -1.6525132e-02 0.1)
(   7.7591973e-01  -1.6864365e-02 0.1)
(   7.7257525e-01  -1.7205023e-02 0.1)
(   7.6923077e-01  -1.7547057e-02 0.1)
(   7.6588629e-01  -1.7890419e-02 0.1)
(   7.6254181e-01  -1.8235058e-02 0.1)
(   7.5919732e-01  -1.8580927e-02 0.1)
(   7.5585284e-01  -1.8927977e-02 0.1)
(   7.5250836e-01  -1.9276159e-02 0.1)
(   7.4916388e-01  -1.9625426e-02 0.1)
(   7.4581940e-01  -1.9975730e-02 0.1)
(   7.4247492e-01  -2.0327023e-02 0.1)
(   7.3913043e-01  -2.0679257e-02 0.1)
(   7.3578595e-01  -2.1032386e-02 0.1)
(   7.3244147e-01  -2.1386363e-02 0.1)
(   7.2909699e-01  -2.1741141e-02 0.1)